LTspice 26.0.2 for Windows
Circuit: C:\Users\willi\OneDrive\Documents\rf_receiver\frontend\4_VCO\vco.net
Start Time: Fri May  8 17:21:01 2026
solver = Normal
Maximum thread count: 24
tnom = 27
temp = 27
method = trap
Compress1stOrder = true
Compress2ndOrder = true
WARNING: Node nc_02 is floating.
WARNING: Node n003 is floating.

.OP point found by inspection.
.OP point found by inspection.
Total elapsed time: 1.393 seconds.

Files loaded:
C:\Users\willi\OneDrive\Documents\rf_receiver\frontend\4_VCO\vco.net
C:\Users\willi\AppData\Local\LTspice\lib\cmp\standard.mos

